Version 4
SHEET 1 1444 680
WIRE 192 -32 64 -32
WIRE 336 -32 256 -32
WIRE 1104 -32 976 -32
WIRE 1248 -32 1168 -32
WIRE 352 96 224 96
WIRE 1264 96 1136 96
WIRE 224 112 224 96
WIRE 528 112 400 112
WIRE 1136 112 1136 96
WIRE 1440 112 1312 112
WIRE -96 128 -144 128
WIRE 64 128 64 -32
WIRE 64 128 -16 128
WIRE 80 128 64 128
WIRE 192 128 160 128
WIRE 816 128 768 128
WIRE 976 128 976 -32
WIRE 976 128 896 128
WIRE 992 128 976 128
WIRE 1104 128 1072 128
WIRE 336 144 336 -32
WIRE 336 144 256 144
WIRE 1248 144 1248 -32
WIRE 1248 144 1168 144
WIRE 192 160 128 160
WIRE 1104 160 1040 160
WIRE 352 192 352 96
WIRE 400 192 352 192
WIRE 1264 192 1264 96
WIRE 1312 192 1264 192
WIRE 224 208 224 176
WIRE 528 208 528 112
WIRE 528 208 224 208
WIRE 1136 208 1136 176
WIRE 1440 208 1440 112
WIRE 1440 208 1136 208
WIRE 128 224 128 160
WIRE 336 224 336 144
WIRE 336 224 128 224
WIRE 400 224 400 192
WIRE 1040 224 1040 160
WIRE 1248 224 1248 144
WIRE 1248 224 1040 224
WIRE 1312 224 1312 192
WIRE 160 256 160 128
WIRE 1072 256 1072 128
FLAG 400 224 0
FLAG 160 320 0
FLAG -144 208 0
FLAG 1312 224 0
FLAG 1072 320 0
FLAG 768 208 0
SYMBOL cap 256 -48 R90
WINDOW 0 0 32 VBottom 2
WINDOW 3 32 32 VTop 2
SYMATTR InstName C1
SYMATTR Value 0.01µ
SYMBOL res 0 112 R90
WINDOW 0 0 56 VBottom 2
WINDOW 3 32 56 VTop 2
SYMATTR InstName R2
SYMATTR Value 15k
SYMBOL voltage -144 112 R0
WINDOW 3 24 152 Left 2
WINDOW 123 24 124 Left 2
WINDOW 39 0 0 Left 2
SYMATTR InstName V1
SYMATTR Value SINE(2.5 0.4125 125)
SYMATTR Value2 AC 0.4125
SYMBOL voltage 400 96 R0
WINDOW 123 0 0 Left 2
WINDOW 39 0 0 Left 2
SYMATTR InstName V2
SYMATTR Value 5
SYMBOL Opamps\\LTC1050 224 208 M180
SYMATTR InstName U1
SYMBOL res 176 112 R90
WINDOW 0 0 56 VBottom 2
WINDOW 3 32 56 VTop 2
SYMATTR InstName R1
SYMATTR Value 15k
SYMBOL cap 144 256 R0
SYMATTR InstName C2
SYMATTR Value 0.01µ
SYMBOL cap 1168 -48 R90
WINDOW 0 0 32 VBottom 2
WINDOW 3 32 32 VTop 2
SYMATTR InstName C3
SYMATTR Value 0.2µ
SYMBOL res 912 112 R90
WINDOW 0 0 56 VBottom 2
WINDOW 3 32 56 VTop 2
SYMATTR InstName R3
SYMATTR Value 10k
SYMBOL voltage 768 112 R0
WINDOW 123 24 124 Left 2
WINDOW 39 0 0 Left 2
SYMATTR InstName V3
SYMATTR Value ""
SYMATTR Value2 AC 0.4125
SYMBOL voltage 1312 96 R0
WINDOW 123 0 0 Left 2
WINDOW 39 0 0 Left 2
SYMATTR InstName V4
SYMATTR Value 5
SYMBOL Opamps\\LTC1050 1136 208 M180
SYMATTR InstName U2
SYMBOL res 1088 112 R90
WINDOW 0 0 56 VBottom 2
WINDOW 3 32 56 VTop 2
SYMATTR InstName R4
SYMATTR Value 10k
SYMBOL cap 1056 256 R0
SYMATTR InstName C4
SYMATTR Value 0.1µ
TEXT -178 344 Left 2 !.ac oct 10 1 1Meg
TEXT -464 344 Left 2 !;.tran 0 1 0 0.001
