Version 4
SHEET 1 1024 680
WIRE 720 -224 304 -224
WIRE 304 -144 304 -224
WIRE 320 -144 304 -144
WIRE 400 -144 320 -144
WIRE 576 -144 480 -144
WIRE 928 -144 576 -144
WIRE 304 -128 304 -144
WIRE 928 -128 928 -144
WIRE 224 -112 224 -144
WIRE 720 -96 720 -224
WIRE 720 -96 400 -96
WIRE 320 -80 320 -144
WIRE 368 -80 320 -80
WIRE 576 -64 576 -144
WIRE 576 -64 432 -64
WIRE 160 -48 32 -48
WIRE 304 -48 224 -48
WIRE 368 -48 304 -48
WIRE 400 -16 400 -32
FLAG 32 32 0
FLAG 224 -112 0
FLAG 928 -48 0
FLAG 304 32 0
FLAG 720 -16 0
FLAG 400 -16 0
SYMBOL cap 224 -64 R90
WINDOW 0 0 32 VBottom 2
WINDOW 3 32 32 VTop 2
SYMATTR InstName C1
SYMATTR Value 1µ
SYMBOL voltage 32 -64 R0
WINDOW 3 24 152 Left 2
WINDOW 123 24 124 Left 2
WINDOW 39 0 0 Left 2
SYMATTR InstName V1
SYMATTR Value SINE(4 0.4125 200)
SYMATTR Value2 AC 0.4125
SYMBOL voltage 720 -112 R0
WINDOW 123 0 0 Left 2
WINDOW 39 0 0 Left 2
SYMATTR InstName V2
SYMATTR Value 5
SYMBOL res 496 -160 R90
WINDOW 0 0 56 VBottom 2
WINDOW 3 32 56 VTop 2
SYMATTR InstName R1
SYMATTR Value 10k
SYMBOL res 320 -160 R90
WINDOW 0 0 56 VBottom 2
WINDOW 3 32 56 VTop 2
SYMATTR InstName R2
SYMATTR Value 17k
SYMBOL res 912 -144 R0
SYMATTR InstName R4
SYMATTR Value 10Meg
SYMBOL Opamps\\UniversalOpamp2 400 -64 R0
SYMATTR InstName U1
SYMBOL res 288 -144 R0
SYMATTR InstName R3
SYMATTR Value 100k
SYMBOL res 288 -64 R0
SYMATTR InstName R5
SYMATTR Value 100k
TEXT 208 104 Left 2 !;.ac oct 10 1 10k
TEXT -4 124 Left 2 !.tran 0 1 0 0.001
TEXT 152 -192 Left 2 !.lib ../Components/LM324.ti.lib
