Version 4
SHEET 1 1392 680
WIRE 704 -48 544 -48
WIRE 160 -32 -80 -32
WIRE 896 0 608 0
WIRE 544 16 544 -48
WIRE 576 16 544 16
WIRE 688 32 640 32
WIRE 704 32 704 -48
WIRE 704 32 688 32
WIRE 288 48 160 48
WIRE 384 48 288 48
WIRE 480 48 384 48
WIRE 576 48 480 48
WIRE 608 80 608 64
WIRE 752 80 608 80
WIRE 896 80 752 80
WIRE 752 144 752 80
FLAG -80 48 0
FLAG 160 128 0
FLAG 752 144 0
FLAG 688 112 0
FLAG 480 112 0
FLAG 288 112 0
FLAG 384 112 0
SYMBOL res 144 -48 R0
SYMATTR InstName R1
SYMATTR Value 47k
SYMBOL res 144 32 R0
SYMATTR InstName R2
SYMATTR Value 56k
SYMBOL voltage 896 -16 R0
WINDOW 123 0 0 Left 2
WINDOW 39 0 0 Left 2
SYMATTR InstName V1
SYMATTR Value 5
SYMBOL voltage -80 -48 R0
WINDOW 3 -67 169 Left 2
WINDOW 123 -67 197 Left 2
WINDOW 39 0 0 Left 2
SYMATTR Value 8
SYMATTR Value2 AC 0.4
SYMATTR InstName V2
SYMBOL res 672 16 R0
SYMATTR InstName R3
SYMATTR Value 10Meg
SYMBOL cap 464 48 R0
SYMATTR InstName C2
SYMATTR Value 100µ
SYMBOL cap 272 48 R0
SYMATTR InstName C4
SYMATTR Value 100p
SYMBOL cap 368 48 R0
SYMATTR InstName C5
SYMATTR Value 100n
SYMBOL Opamps\\UniversalOpamp2 608 32 R0
SYMATTR InstName U1
TEXT -112 168 Left 2 !.tran 1
TEXT -400 120 Left 2 !;.ac oct 10 1 1Meg
