Version 4
SHEET 1 1392 680
WIRE 464 -48 304 -48
WIRE 160 -32 -80 -32
WIRE 656 0 368 0
WIRE 304 16 304 -48
WIRE 336 16 304 16
WIRE 464 32 464 -48
WIRE 464 32 400 32
WIRE 336 48 160 48
WIRE 368 80 368 64
WIRE 656 80 368 80
FLAG -80 48 0
FLAG 160 128 0
SYMBOL res 144 -48 R0
SYMATTR InstName R1
SYMATTR Value 80k
SYMBOL res 144 32 R0
SYMATTR InstName R2
SYMATTR Value 100k
SYMBOL Opamps\\LTC1050 368 -32 R0
SYMATTR InstName U1
SYMBOL voltage 656 -16 R0
SYMATTR InstName V1
SYMBOL voltage -80 -48 R0
WINDOW 123 0 0 Left 2
WINDOW 39 0 0 Left 2
SYMATTR InstName V2
SYMATTR Value SINE(8 0.4 1000)
